*************************************                                           
*HEADING                                                                        
ICEM - ABAQUS INTERFACES VERSION 4.3.1                                          
*************************************                                           
*NODE, NSET=All
1, 2.22222228E-003, 8.00000038E-003, 1.66666671E-003
2, 2.22222228E-003, 8.00000038E-003, 3.33333341E-003
3, 4.44444455E-003, 8.00000038E-003, 1.66666671E-003
4, 4.44444455E-003, 8.00000038E-003, 3.33333341E-003
5, 6.66666683E-003, 8.00000038E-003, 1.66666671E-003
6, 6.66666683E-003, 8.00000038E-003, 3.33333341E-003
7, 8.88888910E-003, 8.00000038E-003, 1.66666671E-003
8, 8.88888910E-003, 8.00000038E-003, 3.33333341E-003
9, 1.11111114E-002, 8.00000038E-003, 1.66666671E-003
10, 1.11111114E-002, 8.00000038E-003, 3.33333341E-003
11, 1.33333337E-002, 8.00000038E-003, 1.66666671E-003
12, 1.33333337E-002, 8.00000038E-003, 3.33333341E-003
13, 1.55555559E-002, 8.00000038E-003, 1.66666671E-003
14, 1.55555559E-002, 8.00000038E-003, 3.33333341E-003
15, 1.77777782E-002, 8.00000038E-003, 1.66666671E-003
16, 1.77777782E-002, 8.00000038E-003, 3.33333341E-003
17, 2.22222228E-003, 6.00000005E-003, 1.66666671E-003
18, 2.22222228E-003, 6.00000005E-003, 3.33333341E-003
19, 4.44444455E-003, 6.00000005E-003, 1.66666671E-003
20, 4.44444455E-003, 6.00000005E-003, 3.33333341E-003
** ... 220 like lines cut
*ELEMENT,TYPE=C3D8,ELSET=SYS_1_1_SOLID_ELSET                                    
         1,         1,       206,       215,       217,        96,       210,       216,       240
         2,         1,       217,       215,       206,         2,       225,       214,       202
         3,         2,       225,       214,       202,        97,       136,       137,       138
         4,         1,        17,       207,       206,        96,        88,       211,       210
         5,         1,       206,       207,        17,         2,       202,       203,        18
         6,         2,       202,       203,        18,        97,       138,       139,       105
         7,        17,        33,       208,       207,        88,        80,       212,       211
         8,        17,       207,       208,        33,        18,       203,       204,        34
         9,        18,       203,       204,        34,       105,       139,       140,       113
        10,        33,        49,       209,       208,        80,        72,       213,       212
        11,        33,       208,       209,        49,        34,       204,       205,        50
        12,        34,       204,       205,        50,       113,       140,       141,       121
        13,        49,       183,       200,       209,        72,       191,       201,       213
        14,        49,       209,       200,       183,        50,       205,       199,       175
        15,        50,       205,       199,       175,       121,       141,       142,       143
        16,         1,       217,       218,         3,        96,       240,       239,        95
        17,         1,         3,       218,       217,         2,         4,       226,       225
        18,         2,         4,       226,       225,        97,        98,       135,       136
        19,         1,         3,        19,        17,        96,        95,        87,        88
        20,         1,        17,        19,         3,         2,        18,        20,         4
** ... 115 like lines cut
*NSET,NSET=SYS_1_1_SOLID_NSET                                                   
         1,         2,         3,         4,         5,         6,         7,         8,         9,        10,        11,        12,        13,        14,        15,        16,
        17,        18,        19,        20,        21,        22,        23,        24,        25,        26,        27,        28,        29,        30,        31,        32,
        33,        34,        35,        36,        37,        38,        39,        40,        41,        42,        43,        44,        45,        46,        47,        48,
        49,        50,        51,        52,        53,        54,        55,        56,        57,        58,        59,        60,        61,        62,        63,        64,
        65,        66,        67,        68,        69,        70,        71,        72,        73,        74,        75,        76,        77,        78,        79,        80,
        81,        82,        83,        84,        85,        86,        87,        88,        89,        90,        91,        92,        93,        94,        95,        96,
        97,        98,        99,       100,       101,       102,       103,       104,       105,       106,       107,       108,       109,       110,       111,       112,
       113,       114,       115,       116,       117,       118,       119,       120,       121,       122,       123,       124,       125,       126,       127,       128,
       129,       130,       131,       132,       133,       134,       135,       136,       137,       138,       139,       140,       141,       142,       143,       144,
       145,       146,       147,       148,       149,       150,       151,       152,       153,       154,       155,       156,       157,       158,       159,       160,
       161,       162,       163,       164,       165,       166,       167,       168,       169,       170,       171,       172,       173,       174,       175,       176,
       177,       178,       179,       180,       181,       182,       183,       184,       185,       186,       187,       188,       189,       190,       191,       192,
       193,       194,       195,       196,       197,       198,       199,       200,       201,       202,       203,       204,       205,       206,       207,       208,
       209,       210,       211,       212,       213,       214,       215,       216,       217,       218,       219,       220,       221,       222,       223,       224,
       225,       226,       227,       228,       229,       230,       231,       232,       233,       234,       235,       236,       237,       238,       239,       240
*NSET,NSET=FACEWITHFORCES_NSET                                                  
       137,       138,       139,       140,       141,       142,       199,       200,       201,       202,       203,       204,       205,       206,       207,       208,
       209,       210,       211,       212,       213,       214,       215,       216
*NSET,NSET=FACEDIRICHLETBOUNDARY_NSET                                           
       151,       152,       153,       154,       155,       156,       157,       158,       159,       160,       161,       162,       163,       164,       165,       166,
       167,       168,       169,       170,       171,       172,       173,       174
*NSET,NSET=FACEFORCEFORPRESTRESS_NSET                                           
        97,        98,        99,       100,       101,       102,       103,       104,       105,       106,       107,       108,       109,       110,       111,       112,
       113,       114,       115,       116,       117,       118,       119,       120,       121,       122,       123,       124,       125,       126,       127,       128,
       129,       130,       131,       132,       133,       134,       135,       136,       137,       138,       139,       140,       141,       142,       143,       144,
       145,       146,       147,       148,       149,       150,       151,       152,       153,       154,       155,       156
*NSET,NSET=SYS_1_1_NSET                                                         
        65,        66,        67,        68,        69,        70,        71,        72,        73,        74,        75,        76,        77,        78,        79,        80,
        81,        82,        83,        84,        85,        86,        87,        88,        89,        90,        91,        92,        93,        94,        95,        96,
       129,       130,       131,       132,       133,       134,       135,       136,       137,       142,       143,       144,       145,       146,       147,       148,
       149,       150,       151,       156,       165,       166,       167,       168,       169,       170,       171,       172,       173,       174,       175,       176,
       177,       178,       179,       180,       181,       182,       183,       184,       185,       186,       187,       188,       189,       190,       191,       192,
       193,       194,       195,       196,       197,       198,       199,       200,       201,       210,       211,       212,       213,       214,       215,       216,
       217,       218,       219,       220,       221,       222,       223,       224,       225,       226,       227,       228,       229,       230,       231,       232,
       233,       234,       235,       236,       237,       238,       239,       240
       
       
*Material, name =STEEL
*ELASTIC
2e11, 0.3
*DENSITY
7850.0
*Solid Section, elset =SYS_1_1_SOLID_ELSET, material = STEEL
*NSET,NSET=Nall,GENERATE
1,240

*STEP
*FREQUENCY, SOLVER=MATRIXSTORAGE
30
*NODE OUTPUT
U
*END STEP

