/batch
/config,noeldb,1     ! force off writing results to database
*get,_wallstrt,active,,time,wall
! ANSYS input file written by Workbench version 18.1 RELEASE
! File used for geometry attach: C:\NDCSI\workbench\simple_blade_disc_files\dp0\Geom\DM\Geom.agdb
/title,simple_blade_disc--Modal (B5)
! ****** Begin Custom Load Command Snippet ******
/COM, ACT Extensions:
/COM,     MechanicalDropTest, 2.0
/COM,     f0fd899f-9d88-4f46-8cf1-36bf5c218d65, wbex
/COM,
! ****** End   Custom Load Command Snippet ******
*DIM,_wb_ProjectScratch_dir,string,248
_wb_ProjectScratch_dir(1) = 'C:\NDCSI\workbench\simple_blade_disc_files\dp0\SYS\MECH\'
*DIM,_wb_SolverFiles_dir,string,248
_wb_SolverFiles_dir(1) = 'C:\NDCSI\workbench\simple_blade_disc_files\dp0\SYS\MECH\'
*DIM,_wb_userfiles_dir,string,248
_wb_userfiles_dir(1) = 'C:\NDCSI\workbench\simple_blade_disc_files\user_files\'
/com,--- Data in consistent NMM units. See Solving Units in the help system for more information.
/units,MPA
/nopr
/wb,file,start              !  signify a WB generated input file
/prep7
! Turn off shape checking because checks already performed inside WB mesher.
! See help system for more information.
SHPP,OFF,,NOWARN
/nolist
etcon,set             ! allow ANSYS to choose best KEYOP's for 180x elements
/com,*********** Nodes for the whole assembly ***********
nblock,3,,2170
(1i9,3e20.9e3)
        1   -6.428449637E+000    2.069072881E+001    3.333333333E+000
        2   -6.428449637E+000    2.069072881E+001    1.666666667E+000
        3   -4.511614203E+000    2.119049076E+001    3.333333333E+000
        4   -4.511614203E+000    2.119049076E+001    1.666666667E+000
        5   -2.557158732E+000    2.151247087E+001    3.333333333E+000
        6   -2.557158732E+000    2.151247087E+001    1.666666667E+000
        7   -5.815918315E-001    2.161384901E+001    3.333333333E+000
        8   -5.815918315E-001    2.161384901E+001    1.666666667E+000
        9    1.398401334E+000    2.161384901E+001    3.333333333E+000
       10    1.398401334E+000    2.161384901E+001    1.666666667E+000
       11    3.165031636E+000    2.142991184E+001    3.333333333E+000
       12    3.165031636E+000    2.142991184E+001    1.666666667E+000
       13    4.910696352E+000    2.110087387E+001    3.333333333E+000
       14    4.910696352E+000    2.110087387E+001    1.666666667E+000
       15    6.623425163E+000    2.062896085E+001    3.333333333E+000
       16    6.623425163E+000    2.062896085E+001    1.666666667E+000
       17   -6.842783284E+000    2.230711860E+001    3.333333333E+000
       18   -6.842783284E+000    2.230711860E+001    1.666666667E+000
       19   -4.694436127E+000    2.285506139E+001    3.333333333E+000
       20   -4.694436127E+000    2.285506139E+001    1.666666667E+000
! ... 1954 like lines cut
/wb,elem,start            !  set before creation of elements
/com,*********** Elements for Body 1 "Solid" ***********
et,1,186
keyo,1,2,1          ! set full integration on SOLID186
eblock,19,solid,,303
(19i9)
        1        1        1        1        0        0        0        0       20        0        1        1      505      420      408      183      508      418      417
      578     1726     1710      577     1238     1723     1721     1237      576     1867     1722     1709
        1        1        1        1        0        0        0        0       20        0        2        1      408      420      505        2      400      419      507
      577     1710     1726      578      582     1693     1725      583      573     1692     1724     1866
        1        1        1        1        0        0        0        0       20        0        3        2      400      419      507      184      304      303      267
      582     1693     1725      583     1242     1518     1445     1241      581     1520     1519     1446
        1        1        1        1        0        0        0        0       20        0        4        1       17      504      505      183      175      509      508
      575      650     1862      578     1219     1220     1870     1238      576      649     1864     1867
        1        1        1        1        0        0        0        0       20        0        5        1      505      504       17        2      507      506       18
      578     1862      650      575      583     1868      654      580      573     1866     1863      647
        1        1        1        1        0        0        0        0       20        0        6        2      507      506       18      184      267      266      192
      583     1868      654      580     1241     1443     1266     1240      581     1446     1444      653
        1        1        1        1        0        0        0        0       20        0        7       17      514      511      504      175      517      510      509
      651     1875     1865      650     1221     1873     1871     1220      649     1882     1872     1864
        1        1        1        1        0        0        0        0       20        0        8       17      504      511      514       18      506      512      516
      650     1865     1875      651      654     1869     1876      655      647     1863     1874     1881
        1        1        1        1        0        0        0        0       20        0        9       18      506      512      516      192      266      265      262
      654     1869     1876      655     1266     1441     1436     1265      653     1444     1442     1437
        1        1        1        1        0        0        0        0       20        0       10        1      408      407        3      183      417      416      182
      577     1707      588      574     1237     1720     1236     1235      576     1709     1708      587
! ... 587 like lines cut
!Material Id = {7E664EE5-E15A-4E6D-81E3-D97FCD0557E8}
/wb,elem,end               !  done creating elements
/com,*********** Send User Defined Coordinate System(s) ***********
local,12,1,0.,0.,0.,-0.,0.,0.
csys,0
toffst,273.15,  ! Temperature offset from absolute zero
/com,*********** Set Reference Temperature ***********
tref,22.
/wb,mat,start              !  starting to send materials
/com,*********** Send Materials ***********
MP,DENS,1,7.85e-09,	! tonne mm^-3
MP,ALPX,1,1.2e-05,	! C^-1
MP,C,1,434000000,	! mm^2 s^-2 C^-1
MP,KXX,1,60.5,	! tonne mm s^-3 C^-1
MP,RSVX,1,0.00017,	! ohm mm
MP,EX,1,200000,	! tonne s^-2 mm^-1
MP,NUXY,1,0.3,
MP,MURX,1,10000,

/wb,mat,end                !  done sending materials
!************************* Model Summary ********************
!Solid,	Structural Steel,	matid,	1
!************************* End Model Summary ********************
! get the diagonal of the bounding box. Needed later for other things
*get,_xmin,node,,mnloc,x
*get,_ymin,node,,mnloc,y
*get,_zmin,node,,mnloc,z
*get,_xmax,node,,mxloc,x
*get,_ymax,node,,mxloc,y
*get,_zmax,node,,mxloc,z
_ASMDIAG=(_xmax-_xmin)*(_xmax-_xmin)+(_ymax-_ymin)*(_ymax-_ymin)+(_zmax-_zmin)*(_zmax-_zmin)
_ASMDIAG=SQRT(_ASMDIAG)
/wb,contact,start          !  starting to send contact
/wb,contact,end            !  done creating contacts
/com,*********** Send Named Selection as Node Component ***********
CMBLOCK,LOW     ,NODE,       40
(8i10)
       265       266       267       303       418       419       420       504
       505       506       507       508       509       510       511       512
      1441      1442      1443      1444      1445      1446      1519      1722
      1723      1724      1725      1726      1862      1863      1864      1865
      1866      1867      1868      1869      1870      1871      1872      1874

/com,*********** Send Named Selection as Node Component ***********
CMBLOCK,HIGH    ,NODE,       40
(8i10)
       292       293       294       295       410       421       422       423
       424       425       426       427       428       429       430       431
      1496      1497      1498      1499      1500      1501      1503      1713
      1714      1727      1728      1729      1730      1731      1732      1733
      1734      1735      1736      1737      1738      1739      1740      1742

/com,*********** Send Named Selection as Node Component ***********
CMBLOCK,DIRICHLET,NODE,      106
(8i10)
       295       296       297       298       299       300       301       302
       303       304       393       394       395       396       397       398
       399       400       401       402       403       404       405       406
       407       408       409       410       411       412       413       414
       415       416       417       418       419       420       421       422
      1502      1503      1504      1505      1506      1507      1508      1509
      1510      1511      1512      1513      1514      1515      1516      1517
      1518      1519      1520      1677      1678      1679      1680      1681
      1682      1683      1684      1685      1686      1687      1688      1689
      1690      1691      1692      1693      1694      1695      1696      1697
      1698      1699      1700      1701      1702      1703      1704      1705
      1706      1707      1708      1709      1710      1711      1712      1713
      1715      1716      1717      1718      1719      1720      1721      1722
      1724      1727
/com,*********** Send Named Selection as Node Component ***********
CMBLOCK,TOP_LOW ,NODE,       40
(8i10)
       268       269       270       321       390       391       392       495
       496       497       498       499       500       501       502       503
      1447      1448      1449      1450      1451      1452      1555      1672
      1673      1674      1675      1676      1847      1848      1849      1850
      1851      1852      1853      1854      1855      1856      1857      1859

/com,*********** Send Named Selection as Node Component ***********
CMBLOCK,TOP_HIGH,NODE,       40
(8i10)
       323       324       325       326       327       328       329       330
       331       332       333       334       335       336       337       338
      1557      1558      1559      1560      1561      1562      1563      1564
      1565      1566      1567      1568      1569      1570      1571      1572
      1573      1574      1575      1576      1577      1579      1582      1584

/com,*********** Send Named Selection as Node Component ***********
CMBLOCK,TOP     ,NODE,      205
(8i10)
       305       306       307       308       309       310       311       312
       313       314       315       316       317       318       319       320
       321       322       323       336       337       338       339       340
       341       342       343       344       345       346       347       348
       349       350       351       352       353       354       355       356
       357       358       359       360       361       362       363       364
       365       366       367       368       369       370       371       372
       373       374       375       376       377       378       379       380
       381       382       383       384       385       386       387       388
       389       390       391       392      1521      1522      1523      1524
      1525      1526      1527      1528      1529      1530      1531      1532
      1533      1534      1535      1536      1537      1538      1539      1540
      1541      1542      1543      1544      1545      1546      1547      1548
      1549      1550      1551      1552      1553      1554      1555      1556
      1558      1582      1583      1584      1585      1586      1587      1588
      1589      1590      1591      1592      1593      1594      1595      1596
      1597      1598      1599      1600      1601      1602      1603      1604
      1605      1606      1607      1608      1609      1610      1611      1612
      1613      1614      1615      1616      1617      1618      1619      1620
      1621      1622      1623      1624      1625      1626      1627      1628
! ... 6 like lines cut
/golist
/wb,load,start             !  starting to send loads
/com,*********** Fixed Supports ***********
CMBLOCK,_FIXEDSU,NODE,      106
(8i10)
       295       296       297       298       299       300       301       302
       303       304       393       394       395       396       397       398
       399       400       401       402       403       404       405       406
       407       408       409       410       411       412       413       414
       415       416       417       418       419       420       421       422
      1502      1503      1504      1505      1506      1507      1508      1509
      1510      1511      1512      1513      1514      1515      1516      1517
      1518      1519      1520      1677      1678      1679      1680      1681
      1682      1683      1684      1685      1686      1687      1688      1689
      1690      1691      1692      1693      1694      1695      1696      1697
      1698      1699      1700      1701      1702      1703      1704      1705
      1706      1707      1708      1709      1710      1711      1712      1713
      1715      1716      1717      1718      1719      1720      1721      1722
      1724      1727
cmsel,s,_FIXEDSU
d,all,all
nsel,all
/com,*********** Node Rotations ***********
nmod,265,,,,45.,0.,0.
nmod,266,,,,45.,0.,0.
nmod,267,,,,45.,0.,0.
nmod,268,,,,45.,0.,0.
nmod,269,,,,45.,0.,0.
nmod,270,,,,45.,0.,0.
nmod,321,,,,45.,0.,0.
nmod,390,,,,45.,0.,0.
nmod,391,,,,45.,0.,0.
nmod,392,,,,45.,0.,0.
nmod,495,,,,45.,0.,0.
nmod,496,,,,45.,0.,0.
nmod,497,,,,45.,0.,0.
nmod,498,,,,45.,0.,0.
nmod,499,,,,45.,0.,0.
nmod,500,,,,45.,0.,0.
nmod,501,,,,45.,0.,0.
nmod,502,,,,45.,0.,0.
nmod,503,,,,45.,0.,0.
nmod,504,,,,45.,0.,0.
! ... 53 like lines cut
/com,*********** Create Periodic/Cyclic Symmetry ***********
CYCOPT,USRROT,1
CYCOPT,STATUS
*DIM,_CYCLICMAP,ARRAY,2,80
*SET,_CYCLICMAP(1,1),292,265
*SET,_CYCLICMAP(1,2),293,266
*SET,_CYCLICMAP(1,3),294,267
*SET,_CYCLICMAP(1,4),295,303
*SET,_CYCLICMAP(1,5),323,321
*SET,_CYCLICMAP(1,6),324,268
*SET,_CYCLICMAP(1,7),325,269
*SET,_CYCLICMAP(1,8),326,270
*SET,_CYCLICMAP(1,9),327,498
*SET,_CYCLICMAP(1,10),328,496
*SET,_CYCLICMAP(1,11),329,497
*SET,_CYCLICMAP(1,12),330,495
*SET,_CYCLICMAP(1,13),331,499
*SET,_CYCLICMAP(1,14),332,500
*SET,_CYCLICMAP(1,15),333,501
*SET,_CYCLICMAP(1,16),334,502
*SET,_CYCLICMAP(1,17),335,503
*SET,_CYCLICMAP(1,18),336,390
*SET,_CYCLICMAP(1,19),337,392
*SET,_CYCLICMAP(1,20),338,391
! ... 60 like lines cut
CYCLIC,8,,12,,,_CYCLICMAP
/gst,on,on
fini
*get,_numnode,node,0,count
*get,_numelem,elem,0,count
*get, _MAXELEMNUM, elem, 0, NUM, MAX
*get, _MAXNODENUM, node, 0, NUM, MAX
*get, _MAXELEMTYPE, etyp, 0, NUM, MAX
*get, _MAXREALCONST, real, 0, NUM, MAX
/go
/wb,load,end               !  done creating loads
/com,--- Number of total nodes = %_numnode%
/com,--- Number of contact elements = 0
/com,--- Number of spring elements = 0
/com,--- Number of bearing elements = 0
/com,--- Number of solid elements = 303
/com,--- Number of condensed parts = 0
/com,--- Number of total elements = %_numelem%
*get,_wallbsol,active,,time,wall
/solu
antype,2                   ! modal analysis
modopt,lanb,6
outres,erase
outres,all,none
outres,nsol,all
mxpand                    ! default expand in case of complex solution
CYCOPT,HINDEX,0,3,1
! *********** WB SOLVE COMMAND ***********
! check interactive state
*get,ANSINTER_,active,,int
*if,ANSINTER_,ne,0,then
/eof
*endif
solve
/com *************** Write FE CONNECTORS ********* 
CEWRITE,file,ce,,INTE
*get,_nmodalsolproc,active,0,numcpu
fini
/nopr
*get,_numnode,node,0,count
*get,_numelem,elem,0,count
*get, _MAXELEMNUM, elem, 0, NUM, MAX
*get, _MAXNODENUM, node, 0, NUM, MAX,,,INTERNAL
*get, _MAXELEMTYPE, etyp, 0, NUM, MAX
*get, _MAXREALCONST, real, 0, NUM, MAX
/gopr
*get,_wallasol,active,,time,wall
/post1
! ****** Begin Command Snippet ******
!   Commands inserted into this file will be executed immediately after the ANSYS /POST1 command.

!   Active UNIT system in Workbench when this object was created:  Metric (mm, t, N, s, mV, mA)
!   NOTE:  Any data that requires units (such as mass) is assumed to be in the consistent solver unit system.
!                See Solving Units in the help system for more information.



! ****** End   Command Snippet ******
! ****** Begin Command Snippet ******
!   Commands inserted into this file will be executed immediately after the ANSYS /POST1 command.

!   Active UNIT system in Workbench when this object was created:  Metric (mm, t, N, s, mV, mA)
!   NOTE:  Any data that requires units (such as mass) is assumed to be in the consistent solver unit system.
!                See Solving Units in the help system for more information.




Nmodes = 6
NumHid1 = 4

allsel 
*get,NumNd,node,,count ! total node number 
*dim,freq_mode,,Nmodes,NumHid1

*do,j,1,NumHid1
*do,i,1,Nmodes
*get,NumNd,node,,count !total node number 
*dim,NodalInfo,,Numnd,7 
set,j,i 
*get,freq_mode(i,j),active,0,set,freq 
*vget,NodalInfo(1,1),node,,nlist 
*vget,NodalInfo(1,2),node,,loc,x 
*vget,NodalInfo(1,3),node,,loc,y 
*vget,NodalInfo(1,4),node,,loc,z 
*vget,NodalInfo(1,5),node,,u,x 
*vget,NodalInfo(1,6),node,,u,y 
*vget,NodalInfo(1,7),node,,u,z 
! writing modes shapes per harmonic
*cfopen,Harm_%j%_mode%i%,txt 
*vwrite 
('Node Num X Y Z UX UY UZ') 
*vwrite,NodalInfo(1,1),NodalInfo(1,2),NodalInfo(1,3),NodalInfo(1,4),NodalInfo(1,5),NodalInfo(1,6),NodalInfo(1,7) 
(f8.0,f11.5,f11.5,f11.5, E15.5, E15.5, E15.5) 
*cfclose 
*enddo 
! writting frequencies per harmonic
*cfopen,Frequency_harm_%j%,txt 
*vwrite 
('Frequency') 
*vwrite,freq_mode(1,j)
(f14.5) 
*cfclose 
*enddo
! ****** End   Command Snippet ******
xmlo,ENCODING,ISO-8859-1
xmlo,parm
/xml,parm,xml
fini
/gopr
*get,_walldone,active,,time,wall
_preptime=(_wallbsol-_wallstrt)*3600
_solvtime=(_wallasol-_wallbsol)*3600
_posttime=(_walldone-_wallasol)*3600
_totaltim=(_walldone-_wallstrt)*3600
/wb,file,end               ! done with WB generated input
