/batch
/config,noeldb,1     ! force off writing results to database
*get,_wallstrt,active,,time,wall
! ANSYS input file written by Workbench version 18.2 RELEASE
! File used for geometry attach: D:\tempfiles\WB_SIV0021_SIV0021_12312_2\unsaved_project_files\dp0\SYS\DM\SYS.scdoc
/title,unsaved_project--Static Structural (A5)
*DIM,_wb_ProjectScratch_dir,string,248
_wb_ProjectScratch_dir(1) = 'D:\tempfiles\WB_SIV0021_SIV0021_12312_2\_ProjectScratch\ScrA67C\'
*DIM,_wb_SolverFiles_dir,string,248
_wb_SolverFiles_dir(1) = 'D:\tempfiles\WB_SIV0021_SIV0021_12312_2\unsaved_project_files\dp0\SYS\MECH\'
*DIM,_wb_userfiles_dir,string,248
_wb_userfiles_dir(1) = 'D:\tempfiles\WB_SIV0021_SIV0021_12312_2\unsaved_project_files\user_files\'
/com,--- Data in consistent NMM units. See Solving Units in the help system for more information.
/units,MPA
/nopr
/wb,file,start              !  signify a WB generated input file
/prep7
! Turn off shape checking because checks already performed inside WB mesher.
! See help system for more information.
SHPP,OFF,,NOWARN
/nolist
etcon,set             ! allow ANSYS to choose best KEYOP's for 180x elements
/com,*********** Nodes for the whole assembly ***********
nblock,3,,29542
(1i9,3e20.9e3)
        1    5.555555556E-001    9.444444444E+000    5.555555556E-001
        2    5.555555556E-001    9.444444444E+000    1.111111111E+000
        3    5.555555556E-001    9.444444444E+000    1.666666667E+000
        4    5.555555556E-001    9.444444444E+000    2.222222222E+000
        5    5.555555556E-001    9.444444444E+000    2.777777778E+000
        6    5.555555556E-001    9.444444444E+000    3.333333333E+000
        7    5.555555556E-001    9.444444444E+000    3.888888889E+000
        8    5.555555556E-001    9.444444444E+000    4.444444444E+000
        9    1.111111111E+000    9.444444444E+000    5.555555556E-001
       10    1.111111111E+000    9.444444444E+000    1.111111111E+000
       11    1.111111111E+000    9.444444444E+000    1.666666667E+000
       12    1.111111111E+000    9.444444444E+000    2.222222222E+000
       13    1.111111111E+000    9.444444444E+000    2.777777778E+000
       14    1.111111111E+000    9.444444444E+000    3.333333333E+000
       15    1.111111111E+000    9.444444444E+000    3.888888889E+000
       16    1.111111111E+000    9.444444444E+000    4.444444444E+000
       17    1.666666667E+000    9.444444444E+000    5.555555556E-001
       18    1.666666667E+000    9.444444444E+000    1.111111111E+000
       19    1.666666667E+000    9.444444444E+000    1.666666667E+000
       20    1.666666667E+000    9.444444444E+000    2.222222222E+000
! ... 26838 like lines cut
/wb,elem,start            !  set before creation of elements
/com,*********** Elements for Body 1 "SYS\Solid" ***********
et,1,186
keyo,1,2,1          ! set full integration on SOLID186
eblock,19,solid,,5832
(19i9)
        1        1        1        1        0        0        0        0       20        0        1        1     6673     6714     6716     5355     6690     6715     7030
     7035    26206    26270     7036    23562    26239    26271    23563     7034    26205    26269    26274
        1        1        1        1        0        0        0        0       20        0        2        1     6716     6714     6673        2     6751     6713     6656
     7036    26270    26206     7035     7041    26268    26172     7040     7031    26273    26267    26171
        1        1        1        1        0        0        0        0       20        0        3        2     6751     6713     6656        3     6786     6712     6639
     7041    26268    26172     7040     7046    26266    26138     7045     7037    26377    26265    26137
        1        1        1        1        0        0        0        0       20        0        4        3     6786     6712     6639        4     6821     6711     6622
     7046    26266    26138     7045     7051    26264    26104     7050     7042    26446    26263    26103
        1        1        1        1        0        0        0        0       20        0        5        4     6821     6711     6622        5     6856     6710     6605
     7051    26264    26104     7050     7056    26262    26070     7055     7047    26515    26261    26069
        1        1        1        1        0        0        0        0       20        0        6        5     6856     6710     6605        6     6891     6709     6588
     7056    26262    26070     7055     7061    26260    26036     7060     7052    26584    26259    26035
        1        1        1        1        0        0        0        0       20        0        7        6     6891     6709     6588        7     6926     6708     6571
     7061    26260    26036     7060     7066    26258    26002     7065     7057    26653    26257    26001
        1        1        1        1        0        0        0        0       20        0        8        7     6926     6708     6571        8     6961     6707     6554
     7066    26258    26002     7065     7071    26256    25968     7070     7062    26722    26255    25967
        1        1        1        1        0        0        0        0       20        0        9        8     6961     6707     6554     5356     5985     5986     5987
     7071    26256    25968     7070    23566    24875    24877    23567     7069    24876    24878    24880
        1        1        1        1        0        0        0        0       20        0       10        1      281     6674     6673     5355     5320     6691     6690
     7033     8198    26204     7035    23491    23492    26238    23562     7034     8197    26208    26205
! ... 11645 like lines cut
!Material Id = {28B50112-113D-499C-831E-6E0EA1FD9D75}
/wb,elem,end               !  done creating elements
/com,*********** Send User Defined Coordinate System(s) ***********
csys,0
toffst,273.15,  ! Temperature offset from absolute zero
/com,*********** Set Reference Temperature ***********
tref,22.
/wb,mat,start              !  starting to send materials
/com,*********** Send Materials ***********
MP,DENS,1,7.85e-09,	! tonne mm^-3
MP,ALPX,1,1.2e-05,	! C^-1
MP,C,1,434000000,	! mm^2 s^-2 C^-1
MP,KXX,1,60.5,	! tonne mm s^-3 C^-1
MP,RSVX,1,0.00017,	! ohm mm
MP,EX,1,200000,	! tonne s^-2 mm^-1
MP,NUXY,1,0.3,
MP,MURX,1,10000,

/wb,mat,end                !  done sending materials
!************************* Model Summary ********************
!SYS\Solid,	Structural Steel,	matid,	1
!************************* End Model Summary ********************
! get the diagonal of the bounding box. Needed later for other things
*get,_xmin,node,,mnloc,x
*get,_ymin,node,,mnloc,y
*get,_zmin,node,,mnloc,z
*get,_xmax,node,,mxloc,x
*get,_ymax,node,,mxloc,y
*get,_zmax,node,,mxloc,z
_ASMDIAG=(_xmax-_xmin)*(_xmax-_xmin)+(_ymax-_ymin)*(_ymax-_ymin)+(_zmax-_zmin)*(_zmax-_zmin)
_ASMDIAG=SQRT(_ASMDIAG)
/wb,contact,start          !  starting to send contact
/wb,contact,end            !  done creating contacts
/com,*********** Send Named Selection as Node Component ***********
CMBLOCK,FACEWITHFORCES,NODE,      541
(8i10)
      5986      5987      5988      5989      5990      5991      5992      5993
      5994      5995      5996      5997      5998      5999      6000      6001
      6002      6003      6004      6545      6546      6547      6548      6549
      6550      6551      6552      6553      6554      6555      6556      6557
      6558      6559      6560      6561      6562      6563      6564      6565
      6566      6567      6568      6569      6570      6571      6572      6573
      6574      6575      6576      6577      6578      6579      6580      6581
      6582      6583      6584      6585      6586      6587      6588      6589
      6590      6591      6592      6593      6594      6595      6596      6597
      6598      6599      6600      6601      6602      6603      6604      6605
      6606      6607      6608      6609      6610      6611      6612      6613
      6614      6615      6616      6617      6618      6619      6620      6621
      6622      6623      6624      6625      6626      6627      6628      6629
      6630      6631      6632      6633      6634      6635      6636      6637
      6638      6639      6640      6641      6642      6643      6644      6645
      6646      6647      6648      6649      6650      6651      6652      6653
      6654      6655      6656      6657      6658      6659      6660      6661
      6662      6663      6664      6665      6666      6667      6668      6669
      6670      6671      6672      6673      6674      6675      6676      6677
      6678      6679      6680      6681      6682      6683      6684      6685
! ... 48 like lines cut
/com,*********** Send Named Selection as Node Component ***********
CMBLOCK,FACEDIRICHLETBOUNDARY,NODE,      541
(8i10)
      6040      6041      6042      6043      6044      6045      6046      6047
      6048      6049      6050      6051      6052      6053      6054      6055
      6056      6057      6058      6059      6060      6061      6062      6063
      6064      6065      6066      6067      6068      6069      6070      6071
      6072      6073      6074      6075      6076      6077      6078      6079
      6080      6081      6082      6083      6084      6085      6086      6087
      6088      6089      6090      6091      6092      6093      6094      6095
      6096      6097      6098      6099      6100      6101      6102      6103
      6104      6105      6106      6107      6108      6109      6110      6111
      6112      6113      6114      6115      6116      6117      6118      6119
      6120      6121      6122      6123      6124      6125      6126      6127
      6128      6129      6130      6131      6132      6133      6134      6135
      6136      6137      6138      6139      6140      6141      6142      6143
      6144      6145      6146      6147      6148      6149      6150      6151
      6152      6153      6154      6155      6156      6157      6158      6159
      6160      6161      6162      6163      6164      6165      6166      6167
      6168      6169      6170      6171      6172      6173      6174      6175
      6176      6177      6178      6179      6180      6181      6182      6183
      6184      6185      6186      6187      6188      6189      6190      6191
      6192      6193      6194      6195      6196      6197      6198      6199
! ... 48 like lines cut
/com,*********** Send Named Selection as Node Component ***********
CMBLOCK,FACEFORCEFORPRESTRESS,NODE,     2053
(8i10)
      5356      5357      5358      5359      5360      5361      5362      5363
      5364      5365      5366      5367      5368      5369      5370      5371
      5372      5373      5374      5375      5376      5377      5378      5379
      5380      5381      5382      5383      5384      5385      5386      5387
      5388      5389      5390      5391      5392      5393      5394      5395
      5396      5397      5398      5399      5400      5401      5402      5403
      5404      5405      5406      5407      5408      5409      5410      5411
      5412      5413      5414      5415      5416      5417      5418      5419
      5420      5421      5422      5423      5424      5425      5426      5427
      5428      5429      5430      5431      5432      5433      5434      5435
      5436      5437      5438      5439      5440      5441      5442      5443
      5444      5445      5446      5447      5448      5449      5450      5451
      5452      5453      5454      5455      5456      5457      5458      5459
      5460      5461      5462      5463      5464      5465      5466      5467
      5468      5469      5470      5471      5472      5473      5474      5475
      5476      5477      5478      5479      5480      5481      5482      5483
      5484      5485      5486      5487      5488      5489      5490      5491
      5492      5493      5494      5495      5496      5497      5498      5499
      5500      5501      5502      5503      5504      5505      5506      5507
      5508      5509      5510      5511      5512      5513      5514      5515
! ... 237 like lines cut
/golist
/wb,load,start             !  starting to send loads
/com,*********** Fixed Supports ***********
CMBLOCK,_FIXEDSU,NODE,     1082
(8i10)
      5986      5987      5988      5989      5990      5991      5992      5993
      5994      5995      5996      5997      5998      5999      6000      6001
      6002      6003      6004      6040      6041      6042      6043      6044
      6045      6046      6047      6048      6049      6050      6051      6052
      6053      6054      6055      6056      6057      6058      6059      6060
      6061      6062      6063      6064      6065      6066      6067      6068
      6069      6070      6071      6072      6073      6074      6075      6076
      6077      6078      6079      6080      6081      6082      6083      6084
      6085      6086      6087      6088      6089      6090      6091      6092
      6093      6094      6095      6096      6097      6098      6099      6100
      6101      6102      6103      6104      6105      6106      6107      6108
      6109      6110      6111      6112      6113      6114      6115      6116
      6117      6118      6119      6120      6121      6122      6123      6124
      6125      6126      6127      6128      6129      6130      6131      6132
      6133      6134      6135      6136      6137      6138      6139      6140
      6141      6142      6143      6144      6145      6146      6147      6148
      6149      6150      6151      6152      6153      6154      6155      6156
      6157      6158      6159      6160      6161      6162      6163      6164
      6165      6166      6167      6168      6169      6170      6171      6172
      6173      6174      6175      6176      6177      6178      6179      6180
! ... 116 like lines cut
cmsel,s,_FIXEDSU
d,all,all
nsel,all
/com,*********** Define Force Using Surface Effect Elements ***********
local,12,0,0.,0.,0.,-0.,0.,0.
csys,0
et,2,154
eblock,10,,,648
(15i9)
     5833        2        2        2       12     5987     5356     5985     5986    23567    23566    24875    24877
     5834        2        2        2       12     5988     5391     5356     5987    23672    23565    23567    24879
     5835        2        2        2       12     5989     5426     5391     5988    23743    23671    23672    24881
     5836        2        2        2       12     5990     5461     5426     5989    23814    23742    23743    24883
     5837        2        2        2       12     5991     5496     5461     5990    23885    23813    23814    24885
     5838        2        2        2       12     5992     5531     5496     5991    23956    23884    23885    24887
     5839        2        2        2       12     5993     5566     5531     5992    24027    23955    23956    24889
     5840        2        2        2       12     5994     5601     5566     5993    24098    24026    24027    24891
     5841        2        2        2       12     5995     5636     5601     5994    24169    24097    24098    24893
     5842        2        2        2       12     5996     5671     5636     5995    24240    24168    24169    24895
     5843        2        2        2       12     5997     5706     5671     5996    24311    24239    24240    24897
     5844        2        2        2       12     5998     5741     5706     5997    24382    24310    24311    24899
     5845        2        2        2       12     5999     5776     5741     5998    24453    24381    24382    24901
     5846        2        2        2       12     6000     5811     5776     5999    24524    24452    24453    24903
     5847        2        2        2       12     6001     5846     5811     6000    24595    24523    24524    24905
     5848        2        2        2       12     6002     5881     5846     6001    24666    24594    24595    24907
     5849        2        2        2       12     6003     5916     5881     6002    24736    24665    24666    24909
     5850        2        2        2       12     6004     6005     5916     6003    24913    24737    24736    24911
     5851        2        2        2       12     5356     5357     5984     5985    23564    23570    24873    23566
     5852        2        2        2       12     5391     5392     5357     5356    23670    23569    23564    23565
! ... 629 like lines cut
esel,s,type,,2
keyop,2,2,1                ! Apply load in local coordinate system
keyop,2,7,1                ! Use original area so load is constant in large deformation
keyop,2,11,2               ! Use real and not project area
esel,all

*DIM,_loadvari34x,TABLE,2,1,1,TIME,
! Time values
_loadvari34x(1,0,1) = 0.
_loadvari34x(2,0,1) = 1.
! Load values
_loadvari34x(1,1,1) = 0.
_loadvari34x(2,1,1) = -0.


*DIM,_loadvari34y,TABLE,2,1,1,TIME,
! Time values
_loadvari34y(1,0,1) = 0.
_loadvari34y(2,0,1) = 1.
! Load values
_loadvari34y(1,1,1) = 0.
_loadvari34y(2,1,1) = -0.


*DIM,_loadvari34z,TABLE,2,1,1,TIME,
! Time values
_loadvari34z(1,0,1) = 0.
_loadvari34z(2,0,1) = 1.
! Load values
_loadvari34z(1,1,1) = 0.
_loadvari34z(2,1,1) = -5.00000000000035

/gst,on,on
fini
*get,_numnode,node,0,count
*get,_numelem,elem,0,count
*get, _MAXELEMNUM, elem, 0, NUM, MAX
*get, _MAXNODENUM, node, 0, NUM, MAX
*get, _MAXELEMTYPE, etyp, 0, NUM, MAX
*get, _MAXREALCONST, real, 0, NUM, MAX
/go
/wb,load,end               !  done creating loads
/com,--- Number of total nodes = %_numnode%
/com,--- Number of contact elements = 648
/com,--- Number of spring elements = 0
/com,--- Number of bearing elements = 0
/com,--- Number of solid elements = 5832
/com,--- Number of condensed parts = 0
/com,--- Number of total elements = %_numelem%
*get,_wallbsol,active,,time,wall
/com,****************************************************************************
/com,*************************    SOLUTION       ********************************
/com,****************************************************************************
/solu
antype,0                   ! static analysis
eqsl,pcg,1e-8,,,,,,1
cntr,print,1               ! print out contact info and also make no initial contact an error
dmpoption,emat,no             ! Don't combine emat file for DANSYS
dmpoption,esav,no             ! Don't combine esav file for DANSYS
nldiag,cont,iter           ! print out contact info each equilibrium iteration
rescontrol,,none                 ! Do not keep any restart files
/com,****************************************************
/com,******************* SOLVE FOR LS 1 OF 1 ****************
esel,s,type,,2
nsle
sfe,all,1,pres,1,%_loadvari34x%
sfe,all,2,pres,1,%_loadvari34y%
sfe,all,3,pres,1,%_loadvari34z%
nsel,all
esel,all
/nopr
/gopr
nsub,1,1,1
time,1.
outres,erase
outres,all,none
outres,nsol,all
outres,rsol,all
outres,strs,all
outres,epel,all
outres,eppl,all
stabilize,off                   ! Stabilization turned OFF by user
! *********** WB SOLVE COMMAND ***********
! check interactive state
*get,ANSINTER_,active,,int
*if,ANSINTER_,ne,0,then
/eof
*endif
solve
/com *************** Write FE CONNECTORS ********* 
CEWRITE,file,ce,,INTE
/com,****************************************************
/com,*************** FINISHED SOLVE FOR LS 1 *************
*get,_wallasol,active,,time,wall
/nopr
*get,_numnode,node,0,count
*get,_numelem,elem,0,count
*get, _MAXELEMNUM, elem, 0, NUM, MAX
*get, _MAXNODENUM, node, 0, NUM, MAX,,,INTERNAL
*get, _MAXELEMTYPE, etyp, 0, NUM, MAX
*get, _MAXREALCONST, real, 0, NUM, MAX
/gopr
*get,_PCGITER,active,,solu,cgiter
/post1
xmlo,ENCODING,ISO-8859-1
xmlo,parm
/xml,parm,xml
fini
/gopr
*get,_walldone,active,,time,wall
_preptime=(_wallbsol-_wallstrt)*3600
_solvtime=(_wallasol-_wallbsol)*3600
_posttime=(_walldone-_wallasol)*3600
_totaltim=(_walldone-_wallstrt)*3600
/wb,file,end               ! done with WB generated input
