
 ANSYS Academic Teaching Advanced                  


 *------------------------------------------------------------------*
 |                                                                  |
 |   W E L C O M E   T O   T H E   A N S Y S (R)  P R O G R A M     |
 |                                                                  |
 *------------------------------------------------------------------*




 ***************************************************************
 *            ANSYS Release 18.1     LEGAL NOTICES             *
 ***************************************************************
 *                                                             *
 * Copyright 2017 SAS IP, Inc.  All rights reserved.           *
 * Unauthorized use, distribution or duplication is            *
 * prohibited.                                                 *
 *                                                             *
 * Ansys is a registered trademark of ANSYS, Inc. or its       *
 * subsidiaries in the United States or other countries.       *
 * See the ANSYS, Inc. online documentation or the ANSYS, Inc. *
 * documentation CD or online help for the complete Legal      *
 * Notice.                                                     *
 *                                                             *
 ***************************************************************
 *                                                             *
 * THIS ANSYS SOFTWARE PRODUCT AND PROGRAM DOCUMENTATION       *
 * INCLUDE TRADE SECRETS AND CONFIDENTIAL AND PROPRIETARY      *
 * PRODUCTS OF ANSYS, INC., ITS SUBSIDIARIES, OR LICENSORS.    *
 * The software products and documentation are furnished by    *
 * ANSYS, Inc. or its subsidiaries under a software license    *
 * agreement that contains provisions concerning               *
 * non-disclosure, copying, length and nature of use,          *
 * compliance with exporting laws, warranties, disclaimers,    *
 * limitations of liability, and remedies, and other           *
 * provisions.  The software products and documentation may be *
 * used, disclosed, transferred, or copied only in accordance  *
 * with the terms and conditions of that software license      *
 * agreement.                                                  *
 *                                                             *
 * ANSYS, Inc. is a UL registered                              *
 * ISO 9001:2008 company.                                      *
 *                                                             *
 ***************************************************************
 *                                                             *
 * This product is subject to U.S. laws governing export and   *
 * re-export.                                                  *
 *                                                             *
 * For U.S. Government users, except as specifically granted   *
 * by the ANSYS, Inc. software license agreement, the use,     *
 * duplication, or disclosure by the United States Government  *
 * is subject to restrictions stated in the ANSYS, Inc.        *
 * software license agreement and FAR 12.212 (for non-DOD      *
 * licenses).                                                  *
 *                                                             *
 ***************************************************************

 Release 18.1
     
 Point Releases and Patches installed:   
     
 ANSYS, Inc. Products Release 18.1   
 ANSYS Mechanical Products Release 18.1  
 ANSYS Customization Files for User Programmable Features Release 18.1   
 ANSYS Autodyn Release 18.1  
 ANSYS LS-DYNA Release 18.1  
 ANSYS AIM Release 18.1  
 ANSYS CFX (includes ANSYS CFD-Post) Release 18.1
 ANSYS Fluent (includes ANSYS CFD-Post) Release 18.1 
 ANSYS TurboGrid Release 18.1
 ANSYS FENSAP-ICE Release 18.1   
 ANSYS Polyflow (includes ANSYS CFD-Post) Release 18.1   
 ANSYS CFD-Post only Release 18.1
 ANSYS Forte Release 18.1
 ANSYS Chemkin Release 18.1  
 ANSYS ICEM CFD Release 18.1 
 ANSYS Aqwa Release 18.1 
 ANSYS Viewer Release 18.1   
 ANSYS Icepak (includes ANSYS CFD-Post) Release 18.1 
 ANSYS Remote Solve Manager Standalone Services Release 18.1 
 AutoCAD Release 18.1
 ACIS Release 18.1   
 Catia, Version 4 Release 18.1   
 Catia, Version 5 Release 18.1   
 Catia, Version 6 Release 18.1   
 Creo Elements/Direct Modeling Release 18.1  
 Inventor Release 18.1   
 JTOpen Release 18.1 
 NX Release 18.1 
 Parasolid Release 18.1  
 Creo Parametric Release 18.1
 Solid Edge Release 18.1 
 SolidWorks Release 18.1 
 ANSYS, Inc. License Manager Release 18.1


          *****  ANSYS COMMAND LINE ARGUMENTS  *****
  BATCH MODE REQUESTED (-b)    = LIST
  INPUT FILE COPY MODE (-c)    = COPY
  SHARED MEMORY PARALLEL REQUESTED
    SINGLE PROCESS WITH SINGLE THREAD REQUESTED
    TOTAL OF     1 CORES REQUESTED
  DESIGNXPLORER REQUESTED

 RELEASE= Release 18.1         BUILD= 18.1      UP20170403   VERSION=WINDOWS x64 
 CURRENT JOBNAME=file  11:20:29  AUG 03, 2018 CP=      0.219

     1  !$variables$
     2  ! This variable will be modified by python  
     3  Filename = 'real_sector_prep' ! file with mesh and boundary conditions  
     4  Filepath = 'C:\NDCSI\framework\cases\case_3\Campbell_diagram' ! path to the file with mesh and boundary conditions  
     5  NumHid = 2 ! number of harmonic index to compute
     6  Nmodes = 4 ! number of modes to compute per Harmonic index  
     7  rotSpeed = 1
     8  !$static_prep$  
     9  ! reading a initial db case create by workbench 
    10  /INPUT,Filename,'dat',,, 0  
    11  !$static_solu$  
    12  /com,****************************************************************************   
    13  /com,*************************    SOLUTION       ********************************   
    14  /com,****************************************************************************   
    15  /solu   
    16  antype,0                   ! static analysis
    17  eqsl,sparse,,,,,1   
    18  cntr,print,1               ! print out contact info and also make no initial contact an error   
    19  dmpoption,emat,no             ! Don't combine emat file for DANSYS  
    20  dmpoption,esav,no             ! Don't combine esav file for DANSYS  
    21  nldiag,cont,iter           ! print out contact info each equilibrium iteration  
    22  RESCONTROL,LINEAR                 ! keep  files for prestressed modal analysis  
    23  /com,****************************************************   
    24  /com,******************* SOLVE FOR LS 1 OF 1 ****************   
    25  /com,****************************************************   
    26  /nopr   
    27  /gopr   
    28  nsub,1,1,1  
    29  time,1. 
    30  outres,erase
    31  outres,all,none 
    32  outres,nsol,all 
    33  outres,rsol,all 
    34  outres,strs,all 
    35  outres,epel,all 
    36  outres,eppl,all 
    37  omega,0,0,rotSpeed  
    38  solve   
    39  !$static_post$  
    40  !****************************************************   
    41  ! writting displacement for static analysis 
    42  !****************************************************   
    43  /post1  
    44  allsel  
    45  *get,NumNd,node,,count ! total node number  
    46  *dim,NodalInfo,,Numnd,7 
    47  set,last
    48  !*del,MODALFREQ 
    49  !*get,MODALFREQ,ACTIVE,,i,FREQ  
    50  *vget,NodalInfo(1,1),node,,nlist
    51  *vget,NodalInfo(1,2),node,,loc,x
    52  *vget,NodalInfo(1,3),node,,loc,y
    53  *vget,NodalInfo(1,4),node,,loc,z
    54  *vget,NodalInfo(1,5),node,,u,x  
    55  *vget,NodalInfo(1,6),node,,u,y  
    56  *vget,NodalInfo(1,7),node,,u,z  
    57  *cfopen,displacement,txt
    58  *vwrite 
    59  ('Node Num X Y Z UX UY UZ') 
    60  *vwrite,NodalInfo(1,1),NodalInfo(1,2),NodalInfo(1,3),NodalInfo(1,4),NodalInfo(1,5),NodalInfo(1,6),NodalInfo(1,7)
    61  (f8.0,f11.5,f11.5,f11.5,f11.5,f11.5,f11.5)  
    62  *cfclose
    63  !$modal_prep$   
    64  !-----------------------------------------------------------
    65  !  Prestressed modal analysis   
    66  !-----------------------------------------------------------
    67  /prep7  
    68  /assign,rstp,file,rst   
    69  !$modal_solu$   
    70  /solu   
    71  antype,,restart,,,perturbation  
    72  perturb,modal,,CURRENT,DZEROKEEP          ! pre-stress modal analysis, only keep zero bcs in case future MSUP   
    73  solve, elform                                       ! Generate matrices needed for perturbation analysis
    74  modopt,lanb,Nmodes  
    75  outres,erase
    76  outres,all,none 
    77  outres,nsol,all 
    78  mxpand  
    79  ! defining harmonic index to calculate  
    80  CYCOPT,HINDEX,0,NumHid,1
    81  solve   
    82  fini
    83  !-----------------------------------------------------------
    84  !  Write modes to txt file  
    85  !-----------------------------------------------------------
    86  !$modal_post$   
    87  /post1  
    88  allsel  
    89  *get,NumNd,node,,count ! total node number  
    90  NumHid1 = NumHid + 1
    91  *dim,freq_mode,,Nmodes,NumHid1  
    92  *do,j,1,NumHid1 
    93  *do,i,1,Nmodes  
    94  *get,NumNd,node,,count !total node number   
    95  *dim,NodalInfo,,Numnd,7 
    96  set,j,i 
    97  *get,freq_mode(i,j),active,0,set,freq   
    98  *vget,NodalInfo(1,1),node,,nlist
    99  *vget,NodalInfo(1,2),node,,loc,x
   100  *vget,NodalInfo(1,3),node,,loc,y
   101  *vget,NodalInfo(1,4),node,,loc,z
   102  *vget,NodalInfo(1,5),node,,u,x  
   103  *vget,NodalInfo(1,6),node,,u,y  
   104  *vget,NodalInfo(1,7),node,,u,z  
   105  ! writing modes shapes per harmonic 
   106  *cfopen,Harm_%j%_mode%i%,txt
   107  *vwrite 
   108  ('Node Num X Y Z UX UY UZ') 
   109  *vwrite,NodalInfo(1,1),NodalInfo(1,2),NodalInfo(1,3),NodalInfo(1,4),NodalInfo(1,5),NodalInfo(1,6),NodalInfo(1,7)
   110  (f8.0,f11.5,f11.5,f11.5, E15.5, E15.5, E15.5)   
   111  *cfclose
   112  *enddo  
   113  ! writting frequencies per harmonic 
   114  *cfopen,Frequency_harm_%j%,txt  
   115  *vwrite 
   116  ('Frequency')   
   117  *vwrite,freq_mode(1,j)  
   118  (f14.5) 
   119  *cfclose
   120  *enddo  

 RUN SETUP PROCEDURE FROM FILE= C:\Program Files\ANSYS Inc\v181\ANSYS\apdl\start.ans

 /INPUT FILE= C:\Program Files\ANSYS Inc\v181\ANSYS\apdl\start.ans  LINE=       0

 PARAMETER FILENAME = real_sector_prep

 PARAMETER FILEPATH = C:\NDCSI\framework\cases\case_3\

 PARAMETER NUMHID =     2.000000000    

 PARAMETER NMODES =     4.000000000    

 PARAMETER ROTSPEED =     1.000000000    

 /INPUT FILE= real_sector_prep.dat  LINE=       0



 DO NOT WRITE ELEMENT RESULTS INTO DATABASE

 *GET  _WALLSTRT  FROM  ACTI  ITEM=TIME WALL  VALUE=  11.3413889    

 TITLE= 
 real_test_case_v1--Static Structural (B5)                                     

  ACT Extensions:
      MechanicalDropTest, 2.0
      f0fd899f-9d88-4f46-8cf1-36bf5c218d65, wbex
  
 --- Data in consistent NMM units. See Solving Units in the help system for more

 MPA UNITS SPECIFIED FOR INTERNAL    
  LENGTH      = MILLIMETERS (mm)
  MASS        = TONNE (Mg)
  TIME        = SECONDS (sec)
  TEMPERATURE = CELSIUS (C)
  TOFFSET     = 273.0
  FORCE       = NEWTON (N)
  HEAT        = MILLIJOULES (mJ)

 INPUT  UNITS ARE ALSO SET TO MPA 

 *** ANSYS - ENGINEERING ANALYSIS SYSTEM  RELEASE Release 18.1     18.1     ***
 ANSYS Academic Teaching Advanced                  
 00226479  VERSION=WINDOWS x64   11:20:29  AUG 03, 2018 CP=      0.312

 real_test_case_v1--Static Structural (B5)                                     



          ***** ANSYS ANALYSIS DEFINITION (PREP7) *****
 *********** Nodes for the whole assembly ***********
 *********** Elements for Body 1 "disc" ***********
 *********** Elements for Body 2 "blade" ***********
 *********** Send User Defined Coordinate System(s) ***********
 *********** Set Reference Temperature ***********
 *********** Send Materials ***********
 *********** Create Contact "Contact Region" ***********
             Real Constant Set For Above Contact Is 4 & 3
 *********** Send Named Selection as Node Component ***********
 *********** Send Named Selection as Node Component ***********
 *********** Send Named Selection as Node Component ***********
 *********** Send Named Selection as Node Component ***********
 *********** Send Named Selection as Node Component ***********
 *********** Fixed Supports ***********
 *********** Node Rotations ***********
 *********** Define Force Using Surface Effect Elements ***********
 *********** Create Periodic/Cyclic Symmetry ***********

 LIST CYCLIC SYMMETRY SOLUTION OPTION STATUS

 LIST OF CYCLIC SYMMETRY HARMONIC INDICES TO BE SOLVED
        0 THROUGH   0

 ALL CYCLIC SYMMETRY EDGE COMPONENT PAIRS
     TO USE ALL ACTIVE DEGREES OF FREEDOM

 CYCLIC SYMMETRY SPECIFIED DISTANCE TOLERANCE (RELATIVE) = 0.10000E-03

 LOADINGS FOR STATIC CYCLIC SYMMETRY ARE TO BE APPLIED TO ALL SECTORS.

 USER WILL APPLY NODAL ROTATIONS TO ALL EDGE COMPONENT NODES
     (ALL AUTOMATIC ROTATIONS SUPPRESSED)


 ***** ROUTINE COMPLETED *****  CP =         0.562


 --- Number of total nodes = 19632
 --- Number of contact elements = 1785
 --- Number of spring elements = 0
 --- Number of bearing elements = 0
 --- Number of solid elements = 10623
 --- Number of condensed parts = 0
 --- Number of total elements = 12408

 *GET  _WALLBSOL  FROM  ACTI  ITEM=TIME WALL  VALUE=  11.3413889    
 ****************************************************************************
 *************************    SOLUTION       ********************************
 ****************************************************************************
 ****************************************************************************
 *************************    SOLUTION       ********************************
 ****************************************************************************

 *****  ANSYS SOLUTION ROUTINE  *****


 PERFORM A STATIC ANALYSIS
  THIS WILL BE A NEW ANALYSIS

 USE SPARSE MATRIX DIRECT SOLVER

 CONTACT INFORMATION PRINTOUT LEVEL       1

 DO NOT COMBINE ELEMENT MATRIX FILES (.emat) AFTER DISTRIBUTED PARALLEL SOLUTION

 DO NOT COMBINE ELEMENT SAVE DATA FILES (.esav) AFTER DISTRIBUTED PARALLEL SOLUTION

 NLDIAG: Nonlinear diagnostics CONT option is set to ON. 
         Writing frequency : each ITERATION.

 DEFINE RESTART CONTROL FOR LOADSTEP LAST
 AT FREQUENCY OF LAST AND NUMBER FOR OVERWRITE IS    0

 WRITE MULTIFRAME RESTART FILES EVEN
 WHEN IT IS A LINEAR STATIC ANALYSIS
 ****************************************************
 ******************* SOLVE FOR LS 1 OF 1 ****************
 ****************************************************

 PRINTOUT RESUMED BY /GOP

 USE       1 SUBSTEPS INITIALLY THIS LOAD STEP FOR ALL  DEGREES OF FREEDOM
 FOR AUTOMATIC TIME STEPPING:
   USE      1 SUBSTEPS AS A MAXIMUM
   USE      1 SUBSTEPS AS A MINIMUM

 TIME=  1.0000    

 ERASE THE CURRENT DATABASE OUTPUT CONTROL TABLE.


 WRITE ALL  ITEMS TO THE DATABASE WITH A FREQUENCY OF NONE
   FOR ALL APPLICABLE ENTITIES

 WRITE NSOL ITEMS TO THE DATABASE WITH A FREQUENCY OF ALL 
   FOR ALL APPLICABLE ENTITIES

 WRITE RSOL ITEMS TO THE DATABASE WITH A FREQUENCY OF ALL 
   FOR ALL APPLICABLE ENTITIES

 WRITE STRS ITEMS TO THE DATABASE WITH A FREQUENCY OF ALL 
   FOR ALL APPLICABLE ENTITIES

 WRITE EPEL ITEMS TO THE DATABASE WITH A FREQUENCY OF ALL 
   FOR ALL APPLICABLE ENTITIES

 WRITE EPPL ITEMS TO THE DATABASE WITH A FREQUENCY OF ALL 
   FOR ALL APPLICABLE ENTITIES

 OMEGA=  0.0000      0.0000      1.0000    

 *** SELECTION OF ELEMENT TECHNOLOGIES FOR APPLICABLE ELEMENTS ***
      --- GIVE SUGGESTIONS AND RESET THE KEY OPTIONS ---

 ELEMENT TYPE    1 IS SOLID187. IT IS NOT ASSOCIATED WITH FULLY INCOMPRESSIBLE
 HYPERELASTIC MATERIALS. NO SUGGESTION IS AVAILABLE AND NO RESETTING IS NEEDED.

 ELEMENT TYPE    2 IS SOLID187. IT IS NOT ASSOCIATED WITH FULLY INCOMPRESSIBLE
 HYPERELASTIC MATERIALS. NO SUGGESTION IS AVAILABLE AND NO RESETTING IS NEEDED.



 *** WARNING ***                         CP =       0.641   TIME= 11:20:29
 Element shape checking is currently inactive.  Issue SHPP,ON or         
 SHPP,WARN to reactivate, if desired.                                    

 *** NOTE ***                            CP =       0.672   TIME= 11:20:29
 The model data was checked and warning messages were found.             
  Please review output or errors file (                                  
 C:\NDCSI\framework\cases\case_3\Campbell_diagram\simulations_1\rot_1\fi 
 ile.err ) for these warning messages.                                   

 GENERATE CYCLIC SYMMETRY CONSTRAINT EQUATIONS 
     USING USER-SUPPLIED LOW TO HIGH NODE XREF ARRAY = _CYCLICMAP                      

 NUMBER OF CONSTRAINT EQUATIONS GENERATED=  3039
   (USING USER SUPPLIED EDGE NODE MAPPING)

 *****  ANSYS SOLVE    COMMAND  *****

 *** ERROR ***                           CP =       0.688   TIME= 11:20:29
 Newton-Raphson iterative solution is not available for cyclic symmetry  
 analysis (CYCLIC command) with non-cyclic loading.                      


 NUMBER OF WARNING MESSAGES ENCOUNTERED=          1
 NUMBER OF ERROR   MESSAGES ENCOUNTERED=          1



 ***** PROBLEM TERMINATED BY INDICATED ERROR(S) OR BY END OF INPUT DATA *****

+--------------------- A N S Y S   S T A T I S T I C S ------------------------+

Release: Release 18.1       Build: 18.1       Update: UP20170403   Platform: WINDOWS x64 
Date Run: 08/03/2018   Time: 11:20     Process ID: 11624
Operating System: Windows 10  (Build: 15063)

Processor Model: Intel(R) Core(TM) i7-7600U CPU @ 2.80GHz

Compiler: Intel(R) FORTRAN Compiler Version 15.0.7  (Build: 20160518)
          Intel(R) C/C++ Compiler Version 15.0.7  (Build: 20160518)
          Intel(R) Math Kernel Library Version 11.3.3 Product Build 20160413

Number of machines requested            :    1
Total number of cores available         :    0
Number of physical cores available      :    0
Number of processes requested           :    1
Number of threads per process requested :    1
Total number of cores requested         :    1 (Shared Memory Parallel)                    

GPU Acceleration: Not Requested

Job Name: file
Working Directory: C:\NDCSI\framework\cases\case_3\Campbell_diagram\simulations_1\rot_1

Total CPU time for main thread                    :        0.8 seconds
Total CPU time summed for all threads             :        0.7 seconds

Elapsed time spent pre-processing model (/PREP7)  :        0.3 seconds
Elapsed time spent solution - preprocessing       :        0.0 seconds
Elapsed time spent computing solution             :        0.0 seconds
Elapsed time spent solution - postprocessing      :        0.0 seconds
Elapsed time spent post-processing model (/POST1) :        0.0 seconds
 

Maximum total memory used                         :       34.0 MB
Maximum total memory allocated                    :     2112.0 MB
Total physical memory available                   :         16 GB

+------------------ E N D   A N S Y S   S T A T I S T I C S -------------------+


 *---------------------------------------------------------------------------*
 |                                                                           |
 |                            ANSYS RUN COMPLETED                            |
 |                                                                           |
 |---------------------------------------------------------------------------|
 |                                                                           |
 | Ansys Release 18.1          Build 18.1         UP20170403     WINDOWS x64 |
 |                                                                           |
 |---------------------------------------------------------------------------|
 |                                                                           |
 | Database Requested(-db)  1024 MB    Scratch Memory Requested      1024 MB |
 | Maximum Database Used      26 MB    Maximum Scratch Memory Used      8 MB |
 |                                                                           |
 |---------------------------------------------------------------------------|
 |                                                                           |
 |        CP Time      (sec) =          0.688       Time  =  11:20:30        |
 |        Elapsed Time (sec) =          3.000       Date  =  08/03/2018      |
 |                                                                           |
 *---------------------------------------------------------------------------*
